/* NIST SRD 69 saturation-derived parahydrogen properties; see source registry. */
FoamFile
{
    version 2.0;
    format ascii;
    class dictionary;
    object thermophysicalProperties.liquid;
}
thermoType
{
    type heRhoThermo;
    mixture pureMixture;
    transport tabulated;
    thermo hTabulated;
    equationOfState icoTabulated;
    specie specie;
    energy sensibleEnthalpy;
}
mixture
{
    specie
    {
        nMoles 1;
        molWeight 2.01588;
    }
    equationOfState
    {
        // NIST saturation density interpolation; pressure dependence is not represented by icoTabulated.
        rho
        (
            (21.010 69.965)
            (21.510 69.357)
            (22.010 68.73)
            (22.510 68.082)
            (23.010 67.411)
            (23.510 66.716)
            (24.010 65.996)
            (24.510 65.247)
            (25.010 64.469)
            (25.510 63.657)
            (26.010 62.809)
            (26.510 61.921)
            (27.010 60.987)
            (27.510 60.002)
            (28.010 58.958)
            (28.510 57.846)
            (29.010 56.652)
            (29.510 55.361)
            (30.010 53.947)
            (30.510 52.375)
// ... 4 like lines cut
        );
    }
    thermodynamics
    {
        Hf 0;
        Sf 0;
        Cp
        (
            (21.010 10188)
            (21.510 10521)
            (22.010 10872)
            (22.510 11245)
            (23.010 11643)
            (23.510 12070)
            (24.010 12529)
            (24.510 13028)
            (25.010 13573)
            (25.510 14173)
            (26.010 14841)
            (26.510 15592)
            (27.010 16447)
            (27.510 17434)
            (28.010 18594)
            (28.510 19984)
            (29.010 21691)
            (29.510 23856)
            (30.010 26715)
            (30.510 30703)
// ... 4 like lines cut
        );
    }
    transport
    {
        mu
        (
            (21.010 1.2707e-05)
            (21.510 1.221e-05)
            (22.010 1.174e-05)
            (22.510 1.1294e-05)
            (23.010 1.0871e-05)
            (23.510 1.0467e-05)
            (24.010 1.0082e-05)
            (24.510 9.7122e-06)
            (25.010 9.3572e-06)
            (25.510 9.015e-06)
            (26.010 8.6841e-06)
            (26.510 8.3628e-06)
            (27.010 8.0497e-06)
            (27.510 7.7431e-06)
            (28.010 7.4414e-06)
            (28.510 7.1428e-06)
            (29.010 6.8451e-06)
            (29.510 6.5459e-06)
            (30.010 6.242e-06)
            (30.510 5.9288e-06)
// ... 4 like lines cut
        );
        kappa
        (
            (21.010 0.1011)
            (21.510 0.10124)
            (22.010 0.10128)
            (22.510 0.10122)
            (23.010 0.10106)
            (23.510 0.10081)
            (24.010 0.10046)
            (24.510 0.10005)
            (25.010 0.099556)
            (25.510 0.098966)
            (26.010 0.098284)
            (26.510 0.097514)
            (27.010 0.096653)
            (27.510 0.095703)
            (28.010 0.094662)
            (28.510 0.093527)
            (29.010 0.092296)
            (29.510 0.090965)
            (30.010 0.08953)
            (30.510 0.087996)
// ... 4 like lines cut
        );
    }
}
